     576
 i =       10, time =        5.000, E =     -3308.8674978820
  O         2.3096166618        9.1301789442        5.0819780079
  O         1.2706352572        2.3897881827        7.7629437343
  O         1.5852259425        6.9196619559        0.6410471956
  O         2.9911258466        3.7383796583        1.8962828385
  O         0.2634559410        5.8718725406        6.5453802836
  O         9.0285882842        6.0958297774        0.1214038813
  O         7.2539855112        8.4811323455        5.7909555859
  O         5.0605488048        9.4479755065        0.7328789096
  O         6.3019184112        7.3747075688        3.7247935445
  O         7.7591730248        8.3809075478        9.2694437909
  O         8.2730053040        3.8704510073        5.7834501445
  O         8.8793236557        2.0170508445        1.6806985305
  O         9.1679751004        0.2896023580        6.8502053020
  O         4.9518028912        4.1281828625        0.1989314293
  O         2.7983956729        8.7277540081        2.4356307207
  O         9.1626334926        3.5590718031        8.8849650954
  O         1.4540552424        1.3761752062        2.3822775483
  O         6.5264846979        1.1590782629        7.6234133572
  O         2.7853630462        0.8808583892        9.5443032336
  O         0.8445939805        2.0932344661        5.0312724919
  O         6.4041765456        1.9077841906        0.2863432468
  O         2.7050111675        4.4464867665        5.8413764543
  O         4.6167825688        9.2516408302        6.5616909059
  O         3.6112629283        6.2092270499        3.1622589882
  O         3.3400145736        6.9352737196        7.4582378109
  O         5.3150789094        3.2959685815        6.1809998364
  O         5.2329656170        6.9201896546        9.5948885527
  O         0.8538347182        5.6003293981        3.8183956211
  O         9.7528165198        8.1654717868        3.6712432268
  O         8.4837912820        4.4326324569        2.6711255179
  O         1.3373614469        8.6153823900        8.2853262641
  O         8.0364082682        9.2331173237        2.0099548037
  H         1.9306750700        9.9054737358        5.5905198401
  H         3.2013753576        9.0505897685        5.5827533282
  H         0.5871118952        3.1000033878        8.1353472596
  H         1.7621635810        2.9307322398        7.0663838640
  H         2.0691150837        6.0460802706        0.8078802692
  H         1.7561615354        7.5492266118        1.3975795707
  H         3.7961226653        3.8277750310        1.3009094833
  H         2.9387673916        4.5480676646        2.4904752500
  H         1.0204448386        5.2070065841        6.4413293909
  H         0.4812710760        6.4683817573        5.7812767809
  H         9.9502254708        6.4782641476        0.4050767776
  H         8.5525331204        6.8710890993       -0.3357377046
  H         7.8126600954        7.8067321886        6.2559157649
  H         7.8404992162        9.1052357469        5.2874538209
  H         4.4915164369        9.9905869587        0.0636897286
  H         5.7442535943       10.1639584159        0.9539853827
  H         6.5658043013        7.9589957392        2.9573251622
  H         6.7693403452        7.7134046068        4.5814223646
  H         7.8145457381        8.7743474349       10.2392795169
  H         7.9423995940        9.1523275023        8.6336031106
  H         8.3322441326        3.3506478333        6.6378557037
  H         8.5717264656        4.7518236021        6.1857586059
  H         9.8582515086        1.6343179514        1.8290037747
  H         8.7252656433        2.9190177079        2.1516889439
  H         9.6492529988        1.1552879459        6.6462401063
  H         9.9744929791       -0.2202973038        7.2759925578
  H         4.7287023987        4.1846756437       -0.7783866434
  H         5.2856585834        5.0778343243        0.3762467947
  H         3.6503812295        9.1564162057        2.0217309217
  H         2.7478567554        9.0753429286        3.4294145435
  H         9.0774608333        4.5812906689        9.0583739932
  H         9.2876141594        3.1162765599        9.7780846582
  H         1.9395150000        2.1218492677        1.8613016022
  H         1.8535953122        0.4877708045        2.1513473295
  H         7.4948183911        0.8638679504        7.4651989264
  H         6.6203573204        1.5817277904        8.5968916762
  H         2.4103578165        1.6385275536        8.9587709422
  H         2.3325865973        0.0854152774        9.0606231083
  H         1.2901516620        1.8430065686        4.1355482147
  H         0.2726975864        2.8894094034        4.8364867160
  H         5.7029567237        2.6505790897        0.4370589550
  H         7.2697419819        2.3596456650        0.5377062263
  H         3.2709156551        5.2626168575        5.9791210523
  H         3.3170232579        3.6565938947        5.9133342253
  H         5.4326829164        8.9204174620        6.0392493587
  H         5.0442599263        9.7763257627        7.3272370597
  H         4.6008219366        6.3930076906        3.3213371848
  H         3.3181319198        7.1594173942        2.9324778913
  H         3.9040160937        7.6188178569        6.9454413859
  H         3.8409834497        6.9912601995        8.3579572001
  H         5.9215811983        2.9929686157        5.4671633777
  H         5.3687117649        2.5150115825        6.8149976569
  H         5.0060343046        7.7333017522       10.1675768572
  H         6.1590573295        7.2088605929        9.2909341081
  H         1.7348151511        5.2897796627        4.2159637439
  H         0.4336108595        4.8481876703        3.3252983524
  H        10.1320067029        7.1893375096        3.6282393989
  H        10.6134606462        8.6437294820        3.6456871581
  H         8.0306287572        5.1239341063        2.1217845055
  H         8.0167134643        4.3164637271        3.5516137037
  H         1.8740849509        7.8676307149        7.7977717046
  H         0.7727813939        8.1712387296        8.9717263436
  H         8.2276800938       10.1884545719        2.2874388666
  H         8.7698778327        8.6661050589        2.4846491605
  O         2.3023203393       19.0010729931        5.0503738249
  O         1.2613647882       12.2734337840        7.7548354306
  O         1.5976578916       16.7879704929        0.6606972901
  O         2.9515389225       13.6018933457        1.8842796704
  O         0.2029722248       15.7279012036        6.5245628283
  O         9.0423242518       15.9501811843        0.0863897243
  O         7.2657802877       18.3235293185        5.7696047344
  O         5.0986332022       19.3083934413        0.7473413755
  O         6.3787150585       17.2233136462        3.7369547306
  O         7.7289434127       18.2094823905        9.3050864309
  O         8.3004068182       13.6429172226        5.8240491935
  O         8.8439917828       11.9002641908        1.6574788254
  O         9.1492587388       10.1348969478        6.8876179881
  O         4.9880394680       13.9669719686        0.2024209158
  O         2.8269454384       18.5194428404        2.4212651059
  O         9.1517658220       13.4128099654        8.8896435176
  O         1.4020746243       11.2520604371        2.3593459840
  O         6.5414007594       10.9953869678        7.6274295228
  O         2.7230414819       10.7508069033        9.5014772413
  O         0.8754242462       11.9232948025        4.9834709259
  O         6.3820659595       11.7469422187        0.2365040969
  O         2.7393359723       14.3241079312        5.8535180917
  O         4.5944228882       19.1211849545        6.5446277908
  O         3.7014455951       16.0374536698        3.1671861389
  O         3.3801649061       16.7664621124        7.4857574379
  O         5.2799683378       13.1111525759        6.1624025845
  O         5.2314008378       16.7876988164        9.5791057835
  O         0.8562748838       15.4808610923        3.8004505146
  O         9.7656989249       18.0260322840        3.6458661092
  O         8.5410388462       14.2632266400        2.7119483812
  O         1.3129171622       18.4127714890        8.2520240656
  O         8.0586847490       19.0762788654        1.9910261813
  H         1.7401332606       19.7050096744        5.5200837252
  H         3.1047578911       18.8936850809        5.6768720131
  H         0.4936260197       12.9190008362        8.1274492756
  H         1.7911034412       12.8135072912        7.1122043570
  H         2.2651339257       16.0510667326        0.7225491284
  H         1.7674350851       17.3770550857        1.4555371502
  H         3.7616075013       13.7066913783        1.2961876338
  H         2.9705847056       14.3536456822        2.5526880653
  H         0.9971419958       15.1081844236        6.5566736979
  H         0.5352588308       16.4323633119        5.9313423638
  H         9.9388069504       16.3316101419        0.4394366000
  H         8.6348649845       16.8213959655       -0.2745936153
  H         7.9042833112       17.8658227053        6.3648502110
  H         7.8211267285       19.0228275642        5.3295108329
  H         4.5052389541       19.9150026752        0.1571495434
  H         5.8553842153       19.9602260040        0.9137587656
  H         6.5676591186       17.7935129877        2.9405608917
  H         6.7090576044       17.6539527158        4.6182400960
  H         7.7783064367       18.6468405699       10.2575237144
  H         7.7028584345       18.9056849145        8.5979087441
  H         8.3388495985       13.0553262296        6.6140309346
  H         8.5813445578       14.5454541054        6.1876187725
  H         9.8803508296       11.6526880076        1.7417544640
  H         8.8437948172       12.8195735870        2.1220503761
  H         9.5792475229       11.0190456926        6.6566995812
  H         9.8947388741        9.4985107343        7.1819881684
  H         4.6733310162       13.9825382126       -0.7480492301
  H         5.2552000020       14.9099396386        0.5102345217
  H         3.5972091665       19.0162242656        1.9490446352
  H         2.6816878358       18.8992096792        3.3856760006
  H         9.0846127719       14.4547233471        9.0908095790
  H         9.2569905571       12.9311606783        9.7624202817
  H         2.1487188316       11.9275390063        2.0425626426
  H         1.8171664152       10.3565078567        2.1169023192
  H         7.4842291791       10.7459982724        7.3586747369
  H         6.5052306197       11.4611969103        8.5639123679
  H         2.2697973687       11.4429835229        8.8719669001
  H         2.2187959516        9.9208628621        9.1570773598
  H         1.2568211573       11.6724992403        4.0794430670
  H         0.3339600950       12.7485720794        4.8895029966
  H         5.7397286302       12.5444445068        0.2810417968
  H         7.2661948145       12.0701840533        0.6233341867
  H         3.3477924302       15.1125955863        5.9198662322
  H         3.3417099522       13.5392343828        6.0569383881
  H         5.3989578878       19.1392128296        5.9309959681
  H         5.0005943800       19.5052705170        7.3796171693
  H         4.6586655350       16.3549079438        3.3255480435
  H         3.1820642774       16.8730529552        2.9406670141
  H         4.0244201528       17.3505941993        6.9591265169
  H         3.9360588563       16.8756368665        8.3492045358
  H         5.8802198195       13.0284956481        5.3957601405
  H         5.4014895207       12.3099341325        6.7596058602
  H         5.0485166925       17.6388860451       10.1228888056
  H         6.1556232922       17.0085487118        9.2460087448
  H         1.6859278105       15.0581825688        4.1714279152
  H         0.3051143259       14.7973261337        3.3168271922
  H        10.0553952511       17.0340410770        3.6734343967
  H        10.6068296746       18.5358861258        3.6934583002
  H         8.2858278337       15.0540914416        2.1014738168
  H         8.1038200232       14.1309463013        3.5948017744
  H         2.0282672667       17.7098960976        7.9433949053
  H         0.8539332284       18.0453444224        9.0335263257
  H         8.3715973016       20.0444328593        2.0688716512
  H         8.7681487453       18.5347023510        2.5394647864
  O         2.2648423009        9.1492773985       14.9524224501
  O         1.2630403903        2.4188608364       17.5766113252
  O         1.5513211242        6.9276110860       10.5410635266
  O         2.9438388513        3.7671031336       11.7046763282
  O         0.2584430361        5.9008077312       16.3754340198
  O         9.0239705089        6.0693065159        9.9796531409
  O         7.2737995234        8.4955186521       15.6729453865
  O         5.0917254855        9.4695760734       10.5932806019
  O         6.3293095644        7.3265211565       13.5657929844
  O         7.7813793302        8.3423371812       19.1584402739
  O         8.2578640230        3.8413453819       15.5927223268
  O         8.8266486952        2.0323327894       11.5108152071
  O         9.1277638829        0.2459433010       16.7476268869
  O         4.9676220802        4.1009919861       10.0694570997
  O         2.8064147607        8.6825317345       12.2943858485
  O         9.1207361517        3.5823315088       18.7446983274
  O         1.4230178274        1.3991133217       12.1959039883
  O         6.5703649256        1.1522198240       17.4286659941
  O         2.7435856119        0.9013200526       19.4220851140
  O         0.8469006286        2.0648868499       14.8400830234
  O         6.3698520095        1.9228601253       10.0923903798
  O         2.7163170126        4.4491141874       15.7117261777
  O         4.5913104778        9.2691818783       16.4138512522
  O         3.6684023917        6.1873562845       13.0305742624
  O         3.3524829782        6.9482953313       17.3358477513
  O         5.2914274075        3.2881600322       16.0096611966
  O         5.1958651511        6.9793002323       19.4393886488
  O         0.8519513117        5.5978056118       13.6614611875
  O         9.8019476708        8.1524674407       13.4831714979
  O         8.4949601648        4.4334592618       12.5163359675
  O         1.3647840955        8.5949626394       18.1437734153
  O         8.0300230897        9.2253072253       11.8655021511
  H         1.7633323308        9.8606885605       15.4389280839
  H         3.1285558590        9.0898639678       15.5071589976
  H         0.5003213330        3.0408503965       17.9409276571
  H         1.7899976064        3.0262338347       16.9825625801
  H         1.9828998698        6.0286084473       10.6737650637
  H         1.9488292276        7.4946070928       11.2941742096
  H         3.7433758461        3.7965560612       11.0882690676
  H         3.0323954721        4.5388608458       12.3518882780
  H         1.0092355056        5.2296729868       16.4046527499
  H         0.5593982004        6.5686051311       15.7219444230
  H         9.9653529257        6.4238934839       10.2398837570
  H         8.6065121769        6.9076056478        9.5705582566
  H         7.8758931686        7.9160100514       16.1934882895
  H         7.8851952386        9.1089091099       15.1816130039
  H         4.4443321191       10.0326117487        9.9916862979
  H         5.7917467929       10.1488926126       10.8335922246
  H         6.5555176111        8.0070282334       12.8674559784
  H         6.6611549388        7.7777749240       14.4359838382
  H         7.7947735758        8.7746445843       20.1168097562
  H         7.7453396867        9.0410594460       18.4611142104
  H         8.1777008662        3.2832317093       16.4168002140
  H         8.5410857124        4.7198270540       15.9985331346
  H         9.8130181251        1.7044696754       11.7211242817
  H         8.6932768114        2.9488211152       11.9622833641
  H         9.5196076248        1.1298744758       16.4175643431
  H         9.9281864871       -0.3197281125       17.0661155380
  H         4.6778112630        4.1772668550        9.1238809403
  H         5.2362975020        5.0509714468       10.3329593292
  H         3.6610678253        9.0696437080       11.8336916434
  H         2.7134436878        9.0648499644       13.2758001327
  H         9.1057381464        4.6130010308       18.9336330319
  H         9.2173296208        3.2124960697       19.6780825069
  H         2.0402113500        2.1947863508       11.9163702837
  H         1.8625129919        0.5491222078       11.8822094803
  H         7.4778283184        0.7581262188       17.1941454095
  H         6.6841487722        1.5702458963       18.3847137902
  H         2.4688513697        1.6655713792       18.7941512491
  H         2.2353901016        0.0807775498       19.0993810004
  H         1.2437594926        1.8273412912       13.9239713389
  H         0.3741929592        2.9272750703       14.7163305231
  H         5.7438757935        2.7065182956       10.3152493220
  H         7.3104086424        2.1898569238       10.3412339891
  H         3.1824879299        5.3137896927       15.8196061912
  H         3.4457850959        3.7238533461       15.7604420615
  H         5.3073309292        8.9810691537       15.7703034271
  H         5.0709515674        9.6856685194       17.2005203910
  H         4.6491444644        6.4063570035       13.1857782424
  H         3.2517892844        7.0852905324       12.8237257817
  H         3.9970305140        7.3861891463       16.7034029110
  H         3.8760084652        7.1171198345       18.2086968758
  H         6.0026101007        3.0916871029       15.3299887399
  H         5.3741841233        2.4151334368       16.5124650779
  H         5.0137360538        7.7938377146       20.0210668241
  H         6.1122334148        7.1385149892       19.0705607795
  H         1.6721722307        5.2041066343       14.1019967921
  H         0.4162563804        4.9051584462       13.1004657784
  H        10.0731188920        7.1641596575       13.6313364519
  H        10.6931152954        8.6070594148       13.4828139511
  H         7.9917150930        5.1317526339       12.0221886757
  H         8.0340044709        4.2300852911       13.3910873381
  H         1.9850233739        7.8735105500       17.7216058379
  H         0.8163568507        8.1010067738       18.7939950693
  H         8.2571108455       10.2197951237       11.9366344484
  H         8.7079616973        8.5744983330       12.3003406811
  O         2.2769445757       19.0117074506       14.9358241333
  O         1.2217440583       12.2584191091       17.6138607400
  O         1.6504536311       16.7601202466       10.4935232550
  O         2.9479786656       13.6358534627       11.7286946971
  O         0.2678971307       15.7490444728       16.4289084772
  O         8.9823880732       15.9502226831        9.9326608978
  O         7.2324076739       18.3853161141       15.6430777143
  O         5.0622622498       19.3220770874       10.5678562385
  O         6.3111479098       17.2012660361       13.5902897016
  O         7.7528535327       18.2203340671       19.1413424304
  O         8.2623459228       13.6714104081       15.6467867803
  O         8.8709589007       11.8633936155       11.5190061672
  O         9.1659817396       10.1475977008       16.7237556494
  O         4.9858841233       14.0005813586        9.9999374947
  O         2.8068063283       18.5692367087       12.2738373927
  O         9.1357681837       13.4042007418       18.7426686527
  O         1.4357502400       11.2285199113       12.2202730995
  O         6.5300206255       10.9869601585       17.4510868345
  O         2.7812846246       10.7349659854       19.4008736703
  O         0.8263140744       11.8945753447       14.8668362925
  O         6.3891926537       11.7559174870       10.0555932564
  O         2.7263141381       14.3090491353       15.7041350795
  O         4.5830195905       19.0946291999       16.4089370957
  O         3.6635494060       16.0907200592       13.0344469483
  O         3.3540855405       16.7915656478       17.3410256249
  O         5.2798450307       13.1251106582       16.0222697140
  O         5.2203493033       16.8093499190       19.4289776937
  O         0.8548745155       15.4493192909       13.6773504839
  O         9.7923842121       18.0121338587       13.5165709950
  O         8.5407135105       14.3199266749       12.5365127497
  O         1.3189862174       18.4550247059       18.1098574402
  O         8.0394363309       19.0640999305       11.8007662707
  H         1.7022084523       19.7409482309       15.3006495969
  H         3.1995454843       19.1073539998       15.3860406228
  H         0.4114487361       12.8772869272       17.9409051953
  H         1.7901927215       12.7787339069       16.9967371429
  H         2.0213645100       15.8617804771       10.7846264969
  H         1.7766261335       17.3283392006       11.3225016084
  H         3.8385514022       13.7040761417       11.2569219221
  H         2.9605987350       14.4519001154       12.3235476746
  H         1.0444858441       15.0986408908       16.5448033149
  H         0.5707140664       16.4080551436       15.7317525613
  H         9.8543755994       16.3598633487       10.2929134122
  H         8.5069223651       16.7156635863        9.4620517009
  H         7.9120993420       17.7853925109       16.0419219777
  H         7.9109289875       19.0771517564       15.3434545397
  H         4.4216404805       19.8886186268        9.9870303969
  H         5.7895415848       19.9336092129       10.9000559093
  H         6.6943800271       17.8048636832       12.8857068875
  H         6.7180881058       17.6314069662       14.4588990407
  H         7.7859041068       18.5942949672       20.1283406989
  H         7.8352134960       18.9510062246       18.4733108036
  H         8.2143908513       13.1112677962       16.4655846790
  H         8.6066996096       14.5459551402       16.0243169727
  H         9.8346726293       11.5350565993       11.7918857524
  H         8.6828711176       12.8354546269       11.8631630360
  H         9.6344487370       11.0264117538       16.5785910997
  H         9.9294570416        9.5031459783       16.9484047752
  H         4.5798611363       13.9656749002        9.0861623120
  H         5.2297723027       14.9765424302       10.1947819545
  H         3.7031416156       18.9034202040       11.8849139029
  H         2.6380179695       18.8766002589       13.2748051388
  H         9.0762801515       14.4214892642       18.9773081500
  H         9.3108477040       12.9832376738       19.6568779672
  H         2.1773891543       11.8644712793       11.8630785889
  H         1.7731506974       10.3620444061       11.8148799081
  H         7.4346843881       10.6706196915       17.1184309435
  H         6.5423606990       11.3982476033       18.4139245351
  H         2.3286145491       11.4702742955       18.8077644761
  H         2.1702119159        9.9520598815       19.1520018660
  H         1.1563602266       11.5798291240       13.9589693691
  H         0.2252420905       12.6843908430       14.8065179325
  H         5.7579928705       12.5382901009       10.3183139928
  H         7.3040650850       11.9519345231       10.4358660355
  H         3.2069221125       15.1756206191       15.8120572028
  H         3.4308197242       13.5774464231       15.7311991941
  H         5.5036073280       18.9385924200       16.0004503518
  H         4.9401588513       19.5159746421       17.2603821882
  H         4.6120406556       16.4432138118       13.1966882524
  H         3.2523436974       17.0029733184       12.8568966327
  H         3.9417413123       17.4540152707       16.8326346093
  H         3.8789378052       16.7557705665       18.2290721318
  H         5.9533246596       12.9873485241       15.3093847071
  H         5.3119549189       12.3256942180       16.6158396819
  H         5.1613870708       17.6501637351       20.0284608534
  H         6.1061510325       17.0662395250       18.9766689378
  H         1.6271533227       14.9688119248       14.1561596829
  H         0.3633957707       14.8059345841       13.0932375937
  H         9.9360634603       16.9929482970       13.5805059862
  H        10.7072753799       18.3839484833       13.6025259956
  H         8.1515015366       15.1206069670       12.0744297334
  H         8.0518025294       14.0979435591       13.3747194169
  H         1.9893241401       17.7282763533       17.7505020076
  H         0.8087775733       17.9980738781       18.8442698272
  H         8.2925127715       20.0336837371       11.9798282409
  H         8.6469943380       18.5229723293       12.4656527434
  O         2.2560839404        9.1450232126       24.8047695893
  O         1.2590649270        2.3745638672       27.4644527385
  O         1.5987320585        6.9240562647       20.3484400904
  O         2.9674735233        3.7781513959       21.6027525489
  O         0.2144716135        5.8542644644       26.2375336889
  O         9.0319305141        6.1110503097       19.8172305395
  O         7.2438132582        8.5054899493       25.4689059970
  O         5.1143157188        9.4687061309       20.4643971841
  O         6.2992431629        7.3878815797       23.4819180029
  O         7.7646001578        8.3480511656       28.9809038917
  O         8.2501023815        3.8750519315       25.4778610755
  O         8.8323448472        2.0010729936       21.3736988635
  O         9.1372321102        0.2885755927       26.5661906745
  O         4.9676369527        4.1528156772       19.8720882374
  O         2.8101867954        8.6946995054       22.1307184669
  O         9.1072221462        3.5656513677       28.5777377689
  O         1.4334965676        1.4123455841       22.0768104112
  O         6.5249151007        1.1178245231       27.3185327317
  O         2.7817967637        0.8842130367       29.2993283091
  O         0.8630351179        2.0573080830       24.7217009092
  O         6.3990433234        1.9117980759       19.9185377954
  O         2.7328425722        4.4613105717       25.5553855445
  O         4.5979329945        9.2773206772       26.2665141474
  O         3.6853315021        6.2142504170       22.8196533154
  O         3.3655345198        6.9288775857       27.1814169991
  O         5.2610127610        3.2484604747       25.8510151880
  O         5.1816727901        6.9564240699       29.2844375776
  O         0.8647662204        5.5832115076       23.5098608745
  O         9.7915974885        8.1754026350       23.3778996436
  O         8.5185914590        4.4238567047       22.4265158132
  O         1.3509384347        8.5784294711       27.9847241784
  O         8.0116105007        9.2112884379       21.7022123409
  H         1.7283967382        9.8027029598       25.3235399090
  H         3.1147715510        9.0142750409       25.3371614828
  H         0.4256026120        2.9223427081       27.8035052486
  H         1.7371625724        2.9875570013       26.8545578316
  H         2.1224072273        6.0655677991       20.5343926751
  H         1.8442242042        7.5972815010       21.0693734328
  H         3.7651443097        3.7830529807       20.9908132418
  H         3.0809939679        4.5452034938       22.2451029053
  H         1.0680670959        5.2892279874       26.1610908032
  H         0.4305655992        6.4506401520       25.4806432940
  H         9.9157810964        6.4988126990       20.1776904780
  H         8.4824066372        6.8577490964       19.3801327676
  H         7.8660934157        7.8699938273       25.8960719883
  H         7.8490693091        9.1422373953       24.9983352773
  H         4.3216611088       10.0009729721       20.0610266744
  H         5.8170967462       10.1974451065       20.6660594709
  H         6.6786994389        7.8895265165       22.7095756182
  H         6.8280271860        7.7575456734       24.2903389160
  H         7.8124548615        8.7506271303       29.9500633974
  H         7.9298889164        9.1378308653       28.3871653816
  H         8.3117848573        3.2619017725       26.2435240161
  H         8.6060321031        4.7675025350       25.7980561074
  H         9.7501285607        1.6310474391       21.7316702816
  H         8.7204816345        2.9267410914       21.8067792147
  H         9.6207732977        1.1725236058       26.4767036218
  H         9.8976537124       -0.3626670040       26.8669801815
  H         4.7432067496        4.2418455716       18.9132502496
  H         5.2254979917        5.1153960865       20.1360466190
  H         3.6127461025        9.0975660939       21.6304042703
  H         2.6993471488        9.1415817540       23.0787261344
  H         9.1405102637        4.5935005964       28.7718458034
  H         9.1078318235        3.1396964645       29.4922777073
  H         2.0070105106        2.1193026484       21.5885176519
  H         1.8449142246        0.5657169395       21.7240775419
  H         7.4618430986        0.8083059627       27.0712151943
  H         6.5549302900        1.5967030875       28.2465848040
  H         2.3569404068        1.6279206712       28.7281611075
  H         2.2926503462        0.0880106474       28.8709774521
  H         1.2079439358        1.9067593407       23.7544740018
  H         0.4929042460        2.9818790085       24.6175619023
  H         5.7258052596        2.6694675107       20.0038894170
  H         7.2644893135        2.2555372330       20.3247074724
  H         3.2734007300        5.2868822716       25.6504518916
  H         3.3145017717        3.6464815649       25.6224160960
  H         5.3958634697        8.9195677203       25.7502198350
  H         5.0121318704        9.7147283883       27.0804280715
  H         4.6555517412        6.4618459462       23.0647002273
  H         3.2797997223        7.1365324675       22.6830371540
  H         3.8497559996        7.5895847752       26.5914941471
  H         3.9782999668        6.8758897765       28.0099617015
  H         5.9414257405        3.1108813188       25.1562648806
  H         5.4099622346        2.5420207016       26.5667851199
  H         5.0578084411        7.7633920997       29.9063097852
  H         6.0804236700        7.0957143819       28.8700269193
  H         1.6852107571        5.1706409582       23.9296775741
  H         0.3336286297        4.9381252423       22.9538743329
  H        10.0040352520        7.1722420342       23.4221890211
  H        10.6932309449        8.6220941622       23.3964803817
  H         8.1087218204        5.1238031885       21.8311967893
  H         8.0547765812        4.2389396351       23.2934195372
  H         1.9249533019        7.8374402510       27.5344654066
  H         0.8296799528        8.1404765340       28.6959201072
  H         8.2547258534       10.1896848783       21.8299326596
  H         8.6940201925        8.6217260059       22.2309078578
  O         2.2725129377       19.0262436197       24.8008135150
  O         1.2591083516       12.2426886500       27.4812685518
  O         1.6030898289       16.7485292466       20.3608494840
  O         2.9513983619       13.5595873442       21.6114197435
  O         0.2059588211       15.7510362984       26.2400213670
  O         9.0249708166       15.9760773211       19.7879283179
  O         7.2699223588       18.3469675605       25.4897728138
  O         5.0972878868       19.3285464162       20.4580178296
  O         6.3534927281       17.2357313270       23.4510592715
  O         7.7866046692       18.2051266505       28.9714024421
  O         8.2939693507       13.6491120677       25.4649777073
  O         8.8830866936       11.8720009100       21.3866617192
  O         9.1383840558       10.1487682800       26.5572104464
  O         4.9900485138       13.9361733423       19.8607993853
  O         2.8078889136       18.5439777027       22.1428883648
  O         9.1542496308       13.4188278722       28.5701886636
  O         1.4434753252       11.2354422082       22.0509167156
  O         6.5191918968       11.0248724768       27.2907027596
  O         2.7751731422       10.7342916925       29.2383432590
  O         0.8663859602       11.9257220092       24.7175420397
  O         6.3765237060       11.7679156725       19.9293800911
  O         2.7586945412       14.3111656487       25.5426933012
  O         4.5898313770       19.1121810006       26.3093778635
  O         3.6582723039       16.0487337112       22.8923845716
  O         3.3838344314       16.7476705736       27.1564639508
  O         5.2827472324       13.1159416811       25.8336931002
  O         5.2222527821       16.7957218874       29.3209782221
  O         0.8230852335       15.4124221048       23.4977787067
  O         9.8086936531       17.9974064785       23.3736478017
  O         8.4882939711       14.3071926804       22.3774977921
  O         1.3578021117       18.4448686002       27.9618533729
  O         8.0611588516       19.0675797552       21.7173713135
  H         1.7914315654       19.7807511060       25.2541888653
  H         3.1686202704       18.9670703434       25.3098624948
  H         0.4609941239       12.7949430838       27.9027306870
  H         1.6872824382       12.7658638013       26.7615478070
  H         2.0990450049       15.9154590063       20.5876272996
  H         1.7488067802       17.3973765911       21.1181985932
  H         3.7189110501       13.6232796905       20.9490885310
  H         3.0711890169       14.4627545019       22.0814999764
  H         0.9467462767       15.0752882992       26.2745824604
  H         0.4976233310       16.4094900308       25.5421847524
  H         9.9227518840       16.3436756524       20.1438967676
  H         8.4572973294       16.7898847604       19.5023253858
  H         7.8952645571       17.7497772687       25.9590829076
  H         7.8592266484       18.9952700549       25.0200240696
  H         4.3759130240       19.8462872341       19.9364273420
  H         5.8407651476       20.0139783267       20.5996214688
  H         6.7624713427       17.9192297308       22.8171026425
  H         6.6969485105       17.7226964061       24.3051208215
  H         7.6329089438       18.5788882445       29.9366984659
  H         7.7148623994       18.9203344150       28.2909200019
  H         8.3087939805       13.0155698323       26.2332399571
  H         8.6150181349       14.4834814955       25.9424844447
  H         9.8357256329       11.5289502437       21.6831829276
  H         8.7528611061       12.8500731658       21.6968978235
  H         9.5715419859       11.0324243023       26.3699013918
  H         9.8973532472        9.5908639199       27.0050160799
  H         4.6971158103       14.1018814610       18.9249202229
  H         5.3357861043       14.8784707630       20.0669238335
  H         3.6846764296       18.9503657312       21.7221483210
  H         2.7529355741       18.9849495170       23.0854325453
  H         8.9860783210       14.4378992393       28.6724390499
  H         9.2101853350       12.9741598723       29.4726663463
  H         1.9525348039       11.9853672501       21.5560443955
  H         1.8250358183       10.3849170440       21.6824986644
  H         7.4553746638       10.7087442855       27.0652688062
  H         6.5897124856       11.4496811370       28.2389918371
  H         2.3636258397       11.4420484347       28.6073364344
  H         2.1920946336        9.9427098794       28.9581125803
  H         1.1531589479       11.6635645681       23.7830453582
  H         0.3064878477       12.7392022601       24.6218931562
  H         5.6464389915       12.4760997642       19.9622282089
  H         7.2692169159       12.0657919722       20.2790898046
  H         3.2658324304       15.1471380878       25.7115188989
  H         3.3827861619       13.5431640813       25.7078079475
  H         5.3670533906       18.7663907575       25.7598389863
  H         5.0546674992       19.5787634043       27.0684286688
  H         4.6281042893       16.3210394685       23.0593565700
  H         3.2965817844       16.9905845135       22.7653920028
  H         3.8946920668       17.3296793287       26.5326727864
  H         3.9004618728       16.7783411937       28.0382558742
  H         5.9155727350       12.9936792696       25.0865004722
  H         5.4318559210       12.2268503011       26.2986539229
  H         5.1519244756       17.6302522994       29.9102144226
  H         6.1705221968       16.8981602226       28.9663005259
  H         1.6552334568       15.0428885771       23.9491117590
  H         0.3725574521       14.7441781170       22.9203134750
  H        10.0266673935       16.9709954116       23.4411969119
  H        10.6962207153       18.4220487780       23.4357000028
  H         8.0929942189       15.0276694312       21.8168990027
  H         7.9870640372       14.1845807837       23.2412395019
  H         1.9662832543       17.6612989162       27.6524783531
  H         0.8031823595       18.2217743580       28.7463125660
  H         8.2645183273       20.0397289256       21.9309544262
  H         8.8684172067       18.5304872438       22.1682563023
